/*--------------------------------*- C++ -*----------------------------------*\
  =========                 |
  \\      /  F ield         | OpenFOAM: The Open Source CFD Toolbox
   \\    /   O peration     | Website:  https://openfoam.org
    \\  /    A nd           | Version:  12
     \\/     M anipulation  |
\*---------------------------------------------------------------------------*/
FoamFile
{
    format      ascii;
    class       dictionary;
    object      momentumTransport;
}
// * * * * * * * * * * * * * * * * * * * * * * * * * * * * * * * * * * * * * //

simulationType RAS;

RAS
{
    model           kEpsilon;

	turbulence      on;    // start laminar, then enable later
    printCoeffs     on;
}

/*
RAS
{
    model               kOmegaSST;

    turbulence          on;    //start laminar to stabilize alpha fields

    printCoeffs         on;
}
*/

/*
LES
{
    model               Smagorinsky;

    turbulence          on;
    printCoeffs         on;

    SmagorinskyCoeffs
    {
        Cs              0.1;    // Smagorinsky constant (0.1-0.2 typical)
    }
}
*/

// ************************************************************************* //
