/*--------------------------------*- C++ -*----------------------------------*\
  =========                 |
  \\      /  F ield         | OpenFOAM: The Open Source CFD Toolbox
   \\    /   O peration     | Website:  https://openfoam.org
    \\  /    A nd           | Version:  12
     \\/     M anipulation  |
\*---------------------------------------------------------------------------*/
FoamFile
{
    format      binary;
    class       volScalarField;
    location    "0";
    object      alpha.air;
}
// * * * * * * * * * * * * * * * * * * * * * * * * * * * * * * * * * * * * * //

dimensions      [0 0 0 0 0 0 0];
internalField   uniform 1;

boundaryField
{
    inlet
    {
        type            fixedValue;        
        value           uniform 0;  // LN₂ enters here
    }

    outlet
    {
        type            zeroGradient;        
    }

    walls
    {
        type            alphaContactAngle;
        contactAngleProperties
        {
            liquid          { theta0 90; }
            vapor           { theta0 90; }            
        }
        value           uniform 0;
    }
}



// ************************************************************************* //
